Flow Title=Base Hydrographs
Program Version=5.07
Use Restart= 0 
Boundary Location=Fall River      ,Upper Reach     ,10.4    ,        ,                ,                ,                ,                                
Interval=1HOUR
Flow Hydrograph= 73 
14.3201114.80376 15.605716.7199618.1380719.8489821.8399424.0956526.5991529.33115
32.2710135.3960638.68279 42.106345.64024  49.25852.9318356.6336960.3355564.00938
67.6271471.1610974.5845977.8713380.9966683.9362386.6682489.1717491.4274593.41841
95.1293196.5474297.6616998.4636298.9472799.1089698.9472798.4636297.6616996.54742
95.1293193.4184191.4274589.1717486.6682483.9362380.9966677.8713374.5845971.16109
67.6271464.0093860.3355556.6336952.93183  49.25845.64024 42.106338.6827935.39606
32.2710129.3311526.5991524.0956521.8399419.8489818.1380716.71996 15.605714.80376
14.3201114.1584214.15842
DSS Path=
Use DSS=False
Use Fixed Start Time=False
Fixed Start Date/Time=,
Is Critical Boundary=False
Critical Boundary Flow=
Boundary Location=Fall River      ,Lower Reach     ,9.3     ,        ,                ,                ,                ,                                
Friction Slope=0.0004,0
Boundary Location=Butte Cr.       ,Butte Cr.       ,0.4     ,        ,                ,                ,                ,                                
Interval=1HOUR
Flow Hydrograph= 73 
    8.72    8.79    8.97    9.37   10.04   10.99   12.11   13.20   14.10   14.89
   15.83   17.14   18.82   20.54   21.98   23.13   24.28   25.70   27.40   29.08
   30.43   31.36   32.06   32.85   33.94   35.37   36.82   37.92   38.45   38.51
   38.36   38.08   37.75   37.19   36.27   35.08   33.87   32.79   31.83   30.78
   29.52   28.11   26.56   24.99   23.41   21.87   20.46   19.28   18.32   17.35
   16.18   14.77   13.30   11.99   10.99   10.34   10.00    9.88    9.87    9.87
    9.84    9.71    9.42    8.99    8.51    8.12    7.94    8.02    8.29    8.60
    8.73    8.54    8.08
DSS Path=
Use DSS=False
Use Fixed Start Time=False
Fixed Start Date/Time=,
Is Critical Boundary=False
Critical Boundary Flow=
